BMS_brain/OpenDSS-g-case-ev-lidl/Line.dss
! 1. Substation LV Main Feeder: slv to pcc
New "Line.line_0" phases=3 bus1=slv.1.2.3 bus2=pcc.1.2.3 r1=0.09 x1=0.08 r0=0.27 x0=0.24 length=0.05 units=km Normamps=1200 Emergamps=1500

! 2. VIRTUAL MICRO-REACTOR LINE (Central Bidirectional Inverter Interface): pcc to n_common
New "Line.line_reactor" phases=3 bus1=pcc.1.2.3 bus2=n_common.1.2.3 r1=0.20 x1=0.20 r0=0.20 x0=0.20 length=0.001 units=km Normamps=150 Emergamps=180

! 3. Internal Branches connected to the Common Bus:
New "Line.line_pv" phases=3 bus1=n_common.1.2.3 bus2=n_pv.1.2.3 r1=0.10 x1=0.10 r0=0.10 x0=0.10 length=0.001 units=km Normamps=100 Emergamps=120
New "Line.line_bat" phases=3 bus1=n_common.1.2.3 bus2=n_bat.1.2.3 r1=0.10 x1=0.10 r0=0.10 x0=0.10 length=0.001 units=km Normamps=100 Emergamps=120
New "Line.line_load" phases=3 bus1=n_common.1.2.3 bus2=n_load.1.2.3 r1=0.10 x1=0.10 r0=0.10 x0=0.10 length=0.001 units=km Normamps=150 Emergamps=180
